TITL Al-18169-9007-104 0.0000000000 60.5091825477 -53.2326560921 0 0 8 (Fm-3m) n - 1
REM
REM in /home/bonan/appdir/AIRSS/examples/1.1
REM
REM
REM
REM
CELL 1.54180    3.11599    4.40669    4.92683  116.56505   90.00000   90.00000
LATT -1
SFAC Al 
Al     1  0.5413637709579  0.3489949124202  0.8385767374818 1.0
Al     1  0.0413637540417  0.4739949125798  0.5885767375182 1.0
Al     1  0.0413637632515  0.9739949127858  0.5885767375574 1.0
Al     1  0.5413637638151  0.0989949125992  0.3385767372441 1.0
Al     1  0.5413637617466  0.8489949122142  0.8385767374427 1.0
Al     1  0.0413637611863  0.7239949124008  0.0885767377559 1.0
Al     1  0.5413637535549  0.5989949126759  0.3385767377128 1.0
Al     1  0.0413637714460  0.2239949123241  0.0885767372872 1.0
END
